Circuit: * D:\NIT GOA\Third Year\LIC\lt SPICE\ALL_PASS_FILTER.asc

Instance "m:u1:6": Length shorter than recommended for a level 2 MOSFET.
Instance "m:u1:5": Length shorter than recommended for a level 2 MOSFET.
Direct Newton iteration for .op point succeeded.

Date: Fri Mar 29 18:27:06 2024
Total elapsed time: 0.046 seconds.

tnom = 27
temp = 27
method = trap
totiter = 21
traniter = 0
tranpoints = 0
accept = 0
rejected = 0
matrix size = 42
fillins = 13
solver = Normal
Matrix Compiler1:     160 opcodes
Matrix Compiler2: 3.92 KB object code size
