Circuit: * D:\NIT GOA\Third Year\LIC\lt SPICE\CLAMPER.asc

Instance "m:u1:6": Length shorter than recommended for a level 2 MOSFET.
Instance "m:u1:5": Length shorter than recommended for a level 2 MOSFET.
Direct Newton iteration for .op point succeeded.

Date: Thu Mar 28 08:54:40 2024
Total elapsed time: 0.432 seconds.

tnom = 27
temp = 27
method = modified trap
totiter = 5954
traniter = 5923
tranpoints = 2084
accept = 1708
rejected = 376
matrix size = 43
fillins = 29
solver = Normal
Matrix Compiler1: 3.40 KB object code size  0.6/0.5/[0.2]
Matrix Compiler2: off  [0.4]/0.6/0.5

