Circuit: * D:\NIT GOA\Third Year\LIC\lt SPICE\CLAMPER_neg.asc

Instance "m:u1:6": Length shorter than recommended for a level 2 MOSFET.
Instance "m:u1:5": Length shorter than recommended for a level 2 MOSFET.
Direct Newton iteration failed to find .op point.  (Use ".option noopiter" to skip.)
Starting Gmin stepping
Gmin = 10
Gmin = 1.07374
vernier = 0.5
vernier = 0.25
vernier = 0.125
vernier = 0.0625
Gmin = 1.08884
vernier = 0.03125
vernier = 0.015625
Gmin = 1.03922
vernier = 0.0078125
vernier = 0.00390625
Gmin = 1.02313
vernier = 0.00520833
vernier = 0.00260417
Gmin = 1.01616
vernier = 0.00347222
vernier = 0.00173611
vernier = 0.00231481
Gmin = 1.01205
vernier = 0.00115741
vernier = 0.00154321
vernier = 0.000771604
Gmin = 1.0104
vernier = 0.00102881
Gmin = 1.00812
vernier = 0.000514403
vernier = 0.00068587
Gmin = 1.00704
vernier = 0.000514403
vernier = 0.00068587
vernier = 0.000514402
Gmin = 1.00622
Gmin = 0
Gmin stepping failed

Starting source stepping with srcstepmethod=0
Source Step = 3.0303%
Source Step = 21.2121%
Source Step = 28.7879%
Source Step = 36.3636%
Source Step = 43.9394%
Source Step = 51.5152%
vernier = 0.375
Source Step = 60.2273%
Source Step = 71.5909%
Source Step = 82.9545%
Source Step = 94.3182%
Source stepping succeeded in finding the operating point.


Date: Fri Mar 29 08:15:28 2024
Total elapsed time: 0.247 seconds.

tnom = 27
temp = 27
method = modified trap
totiter = 15955
traniter = 8799
tranpoints = 2704
accept = 2115
rejected = 589
matrix size = 45
fillins = 38
solver = Normal
Matrix Compiler1: 3.32 KB object code size  0.7/0.4/[0.2]
Matrix Compiler2: off  [0.4]/0.4/0.6

