Circuit: * D:\NIT GOA\Third Year\LIC\lt SPICE\CLIPPER_POS.asc

Direct Newton iteration for .op point succeeded.

Date: Fri Mar 29 20:14:48 2024
Total elapsed time: 0.112 seconds.

tnom = 27
temp = 27
method = modified trap
totiter = 2882
traniter = 2870
tranpoints = 1305
accept = 1208
rejected = 97
matrix size = 13
fillins = 2
solver = Normal
Matrix Compiler1: 634 bytes object code size  0.1/0.1/[0.1]
Matrix Compiler2: off  [0.1]/0.1/0.1

