Circuit: * D:\NIT GOA\Third Year\LIC\lt SPICE\CLIPPER_NEG.asc

Direct Newton iteration for .op point succeeded.

Date: Fri Mar 29 20:12:22 2024
Total elapsed time: 0.110 seconds.

tnom = 27
temp = 27
method = modified trap
totiter = 2897
traniter = 2882
tranpoints = 1306
accept = 1209
rejected = 97
matrix size = 13
fillins = 2
solver = Normal
Matrix Compiler1: 634 bytes object code size  0.2/0.1/[0.1]
Matrix Compiler2: 1.23 KB object code size  0.1/0.2/[0.1]

