Circuit: * D:\NIT GOA\Third Year\LIC\lt SPICE\DIFFERNCE_AMPLIFIER.asc

Instance "m:u1:6": Length shorter than recommended for a level 2 MOSFET.
Instance "m:u1:5": Length shorter than recommended for a level 2 MOSFET.
Direct Newton iteration for .op point succeeded.

Date: Sat Mar 16 13:48:25 2024
Total elapsed time: 0.050 seconds.

tnom = 27
temp = 27
method = modified trap
totiter = 2118
traniter = 2095
tranpoints = 1048
accept = 1048
rejected = 0
matrix size = 44
fillins = 22
solver = Normal
Matrix Compiler1: 3.18 KB object code size  0.5/0.3/[0.1]
Matrix Compiler2: off  [0.3]/0.4/0.4

