Circuit: * D:\NIT GOA\Third Year\LIC\lt SPICE\DIFFERENTIATOR_IDEAL.asc

Instance "m:u1:6": Length shorter than recommended for a level 2 MOSFET.
Instance "m:u1:5": Length shorter than recommended for a level 2 MOSFET.
Direct Newton iteration for .op point succeeded.

Date: Sun Mar 17 12:10:23 2024
Total elapsed time: 0.088 seconds.

tnom = 27
temp = 27
method = modified trap
totiter = 4364
traniter = 4341
tranpoints = 2167
accept = 1786
rejected = 381
matrix size = 41
fillins = 23
solver = Normal
Matrix Compiler1: 2.98 KB object code size  0.5/0.3/[0.1]
Matrix Compiler2: off  [0.3]/0.4/0.3

