Circuit: * D:\NIT GOA\Third Year\LIC\lt SPICE\Draft3.asc

Instance "m:u1:6": Length shorter than recommended for a level 2 MOSFET.
Instance "m:u1:5": Length shorter than recommended for a level 2 MOSFET.
Direct Newton iteration for .op point succeeded.

Date: Fri Mar 29 12:41:21 2024
Total elapsed time: 0.080 seconds.

tnom = 27
temp = 27
method = modified trap
totiter = 4029
traniter = 4006
tranpoints = 1683
accept = 1433
rejected = 250
matrix size = 41
fillins = 28
solver = Normal
Matrix Compiler1: 2.88 KB object code size  0.6/0.3/[0.1]
Matrix Compiler2: off  [0.3]/0.4/0.4

