Circuit: * D:\NIT GOA\Third Year\LIC\lt SPICE\Draft2.asc

Instance "m:u1:6": Length shorter than recommended for a level 2 MOSFET.
Instance "m:u1:5": Length shorter than recommended for a level 2 MOSFET.
Direct Newton iteration for .op point succeeded.

Date: Fri Mar 29 12:33:36 2024
Total elapsed time: 0.063 seconds.

tnom = 27
temp = 27
method = modified trap
totiter = 3968
traniter = 3940
tranpoints = 1612
accept = 1385
rejected = 227
matrix size = 42
fillins = 16
solver = Normal
Matrix Compiler1: 2.43 KB object code size  0.4/0.2/[0.1]
Matrix Compiler2: off  [0.2]/0.3/0.3

