Circuit: * D:\NIT GOA\Third Year\LIC\lt SPICE\Draft6.asc

Limiting rise time of source v1 to 5e-006
Limiting fall time of source v1 to 5e-006
Direct Newton iteration for .op point succeeded.

Date: Fri Mar 29 20:25:30 2024
Total elapsed time: 0.085 seconds.

tnom = 27
temp = 27
method = modified trap
totiter = 4222
traniter = 4206
tranpoints = 1775
accept = 1558
rejected = 217
matrix size = 11
fillins = 2
solver = Normal
Matrix Compiler1: 588 bytes object code size  0.1/0.1/[0.1]
Matrix Compiler2: 1.14 KB object code size  0.1/0.1/[0.1]

