Circuit: * D:\NIT GOA\Third Year\LIC\lt SPICE\Draft1.asc

Instance "m:u3:6": Length shorter than recommended for a level 2 MOSFET.
Instance "m:u3:5": Length shorter than recommended for a level 2 MOSFET.
Instance "m:u2:6": Length shorter than recommended for a level 2 MOSFET.
Instance "m:u2:5": Length shorter than recommended for a level 2 MOSFET.
Instance "m:u1:6": Length shorter than recommended for a level 2 MOSFET.
Instance "m:u1:5": Length shorter than recommended for a level 2 MOSFET.
Direct Newton iteration for .op point succeeded.
Heightened Def Con from 2.65869e-009 to 4.65869e-009

Date: Fri Mar 29 12:53:02 2024
Total elapsed time: 0.184 seconds.

tnom = 27
temp = 27
method = modified trap
totiter = 2463
traniter = 2420
tranpoints = 1077
accept = 1061
rejected = 17
matrix size = 112
fillins = 138
solver = Normal
Thread vector: 6.7/5.7[3] 3.2/2.1[3] 4.2/2.7[3] 0.3/1.4[1]  2592/500
Matrix Compiler1: 15.25 KB object code size  2.7/1.8/[1.2]
Matrix Compiler2: 12.24 KB object code size  0.8/1.2/[0.5]

