Circuit: * D:\NIT GOA\Third Year\LIC\lt SPICE\INVERTING_CKT.asc

Instance "m:u1:6": Length shorter than recommended for a level 2 MOSFET.
Instance "m:u1:5": Length shorter than recommended for a level 2 MOSFET.
Direct Newton iteration for .op point succeeded.

Date: Sat Mar 16 13:06:13 2024
Total elapsed time: 0.066 seconds.

tnom = 27
temp = 27
method = modified trap
totiter = 2120
traniter = 2097
tranpoints = 1049
accept = 1049
rejected = 0
matrix size = 41
fillins = 26
solver = Normal
Matrix Compiler1: 3.22 KB object code size  0.7/0.4/[0.2]
Matrix Compiler2: off  [0.3]/0.4/0.4

