Circuit: * D:\NIT GOA\Third Year\LIC\lt SPICE\NON_INVERTING_CKT.asc

Instance "m:u1:6": Length shorter than recommended for a level 2 MOSFET.
Instance "m:u1:5": Length shorter than recommended for a level 2 MOSFET.
Direct Newton iteration for .op point succeeded.

Date: Sat Mar 16 13:10:19 2024
Total elapsed time: 0.072 seconds.

tnom = 27
temp = 27
method = modified trap
totiter = 2117
traniter = 2094
tranpoints = 1048
accept = 1048
rejected = 0
matrix size = 41
fillins = 26
solver = Normal
Matrix Compiler1: 3.21 KB object code size  0.8/0.4/[0.2]
Matrix Compiler2: off  [0.4]/0.5/1.1

