Circuit: * D:\NIT GOA\Third Year\LIC\lt SPICE\PEAK_VALUE_DETECTOR_NEG.asc

Instance "m:u1:6": Length shorter than recommended for a level 2 MOSFET.
Instance "m:u1:5": Length shorter than recommended for a level 2 MOSFET.
Direct Newton iteration for .op point succeeded.

Date: Fri Mar 29 20:02:56 2024
Total elapsed time: 0.081 seconds.

tnom = 27
temp = 27
method = modified trap
totiter = 2641
traniter = 2603
tranpoints = 1202
accept = 1131
rejected = 71
matrix size = 41
fillins = 23
solver = Normal
Matrix Compiler1: 2.96 KB object code size  0.7/0.3/[0.2]
Matrix Compiler2: off  [0.4]/0.5/0.4

