Circuit: * D:\NIT GOA\Third Year\LIC\lt SPICE\PEAK_VALUE_DETECTOR_POS.asc

Instance "m:u1:6": Length shorter than recommended for a level 2 MOSFET.
Instance "m:u1:5": Length shorter than recommended for a level 2 MOSFET.
Direct Newton iteration for .op point succeeded.

Date: Wed Mar 20 10:26:48 2024
Total elapsed time: 0.281 seconds.

tnom = 27
temp = 27
method = modified trap
totiter = 2430
traniter = 2405
tranpoints = 1133
accept = 1110
rejected = 23
matrix size = 41
fillins = 25
solver = Normal
Matrix Compiler1: 2.93 KB object code size  1.5/0.7/[0.4]
Matrix Compiler2: off  [0.8]/1.0/1.0

