Circuit: * D:\NIT GOA\Third Year\LIC\lt SPICE\PRECISION_DIODE.asc

WARNING: Less than two connections to node VOUT.  This node is used by D1.
Instance "m:u1:6": Length shorter than recommended for a level 2 MOSFET.
Instance "m:u1:5": Length shorter than recommended for a level 2 MOSFET.
Direct Newton iteration for .op point succeeded.

Date: Sat Mar 16 17:09:58 2024
Total elapsed time: 0.094 seconds.

tnom = 27
temp = 27
method = modified trap
totiter = 2126
traniter = 2094
tranpoints = 1048
accept = 1048
rejected = 0
matrix size = 41
fillins = 19
solver = Normal
Matrix Compiler1: 2.77 KB object code size  0.8/0.3/[0.2]
Matrix Compiler2: 3.86 KB object code size  0.4/0.5/[0.3]

