Circuit: * D:\NIT GOA\Third Year\LIC\lt SPICE\SAMPLE_AND_HOLD.asc

Limiting rise time of source v1 to 5e-006
Limiting fall time of source v1 to 5e-006
WARNING: Less than two connections to node VN.  This node is used by V3.
Instance "m:u2:6": Length shorter than recommended for a level 2 MOSFET.
Instance "m:u2:5": Length shorter than recommended for a level 2 MOSFET.
Instance "m:u1:6": Length shorter than recommended for a level 2 MOSFET.
Instance "m:u1:5": Length shorter than recommended for a level 2 MOSFET.
Direct Newton iteration failed to find .op point.  (Use ".option noopiter" to skip.)
Starting Gmin stepping
Gmin = 10
Gmin = 1.07374
Gmin = 0.115292
Gmin = 0.0123794
Gmin = 0.00132923
vernier = 0.5
vernier = 0.25
vernier = 0.125
vernier = 0.0625
Gmin = 0.00100083
vernier = 0.03125
vernier = 0.015625
vernier = 0.0078125
vernier = 0.00390625
vernier = 0.00195313
Gmin = 0.00100083
vernier = 0.000976563
vernier = 0.000488281
Gmin = 0
Gmin stepping succeeded in finding the operating point.


Date: Fri Mar 29 19:12:42 2024
Total elapsed time: 0.353 seconds.

tnom = 27
temp = 27
method = modified trap
totiter = 20935
traniter = 19323
tranpoints = 5823
accept = 4384
rejected = 1439
matrix size = 81
fillins = 88
solver = Normal
Thread vector: 5.5/3.2[2] 1.8/1.5[2] 1.6/1.8[1] 0.2/0.7[1]  2592/500
Matrix Compiler1: 7.82 KB object code size  1.3/0.6/[0.3]
Matrix Compiler2: 8.12 KB object code size  0.7/0.8/[0.5]

