Circuit: * D:\NIT GOA\Third Year\LIC\lt SPICE\TWIN_T_NETOWORK.asc

WARNING: Node N008 is floating.

Instance "m:u1:6": Length shorter than recommended for a level 2 MOSFET.
Instance "m:u1:5": Length shorter than recommended for a level 2 MOSFET.
Direct Newton iteration for .op point succeeded.

Date: Fri Mar 29 18:14:52 2024
Total elapsed time: 0.052 seconds.

tnom = 27
temp = 27
method = trap
totiter = 22
traniter = 0
tranpoints = 0
accept = 0
rejected = 0
matrix size = 44
fillins = 13
solver = Normal
Matrix Compiler1:     168 opcodes
Matrix Compiler2: 4.10 KB object code size
